# generated using pymatgen
data_Ag2GeS3
_symmetry_space_group_name_H-M   'P 1'
_cell_length_a   7.02974826
_cell_length_b   11.82362937
_cell_length_c   6.44584315
_cell_angle_alpha   90.00000000
_cell_angle_beta   90.00000000
_cell_angle_gamma   90.00000000
_symmetry_Int_Tables_number   1
_chemical_formula_structural   Ag2GeS3
_chemical_formula_sum   'Ag8 Ge4 S12'
_cell_volume   535.76003448
_cell_formula_units_Z   4
loop_
 _symmetry_equiv_pos_site_id
 _symmetry_equiv_pos_as_xyz
  1  'x, y, z'
loop_
 _atom_type_symbol
 _atom_type_oxidation_number
  Ag+  1.0
  Ge4+  4.0
  S2-  -2.0
loop_
 _atom_site_type_symbol
 _atom_site_label
 _atom_site_symmetry_multiplicity
 _atom_site_fract_x
 _atom_site_fract_y
 _atom_site_fract_z
 _atom_site_occupancy
  Ag+  Ag0  1  0.64978936  0.65535863  0.48833909  1
  Ag+  Ag1  1  0.35021064  0.34464137  0.98833909  1
  Ag+  Ag2  1  0.64978936  0.34464137  0.48833909  1
  Ag+  Ag3  1  0.35021064  0.65535863  0.98833909  1
  Ag+  Ag4  1  0.14978936  0.15535863  0.48833909  1
  Ag+  Ag5  1  0.85021064  0.84464137  0.98833909  1
  Ag+  Ag6  1  0.14978936  0.84464137  0.48833909  1
  Ag+  Ag7  1  0.85021064  0.15535863  0.98833909  1
  Ge4+  Ge8  1  0.33922124  0.00000000  0.96040091  1
  Ge4+  Ge9  1  0.66077876  0.00000000  0.46040091  1
  Ge4+  Ge10  1  0.83922124  0.50000000  0.96040091  1
  Ge4+  Ge11  1  0.16077876  0.50000000  0.46040091  1
  S2-  S12  1  0.64016390  0.00000000  0.82413849  1
  S2-  S13  1  0.35983610  0.00000000  0.32413849  1
  S2-  S14  1  0.80618286  0.84369272  0.37789370  1
  S2-  S15  1  0.80618286  0.15630728  0.37789370  1
  S2-  S16  1  0.19381715  0.84369272  0.87789370  1
  S2-  S17  1  0.19381715  0.15630728  0.87789370  1
  S2-  S18  1  0.14016390  0.50000000  0.82413849  1
  S2-  S19  1  0.85983610  0.50000000  0.32413849  1
  S2-  S20  1  0.30618285  0.34369272  0.37789370  1
  S2-  S21  1  0.30618285  0.65630728  0.37789370  1
  S2-  S22  1  0.69381715  0.34369272  0.87789370  1
  S2-  S23  1  0.69381715  0.65630728  0.87789370  1
